* NGSPICE file created from tt_um_mattvenn_r2r_dac.ext - technology: sky130A

.subckt sky130_fd_sc_hd__o22a_1 A1 A2 B1 B2 VGND VNB VPB VPWR X a_78_199# a_215_47#
X0 a_78_199# B1 a_215_47# VNB sky130_fd_pr__nfet_01v8 ad=0.08775 pd=0.92 as=0.141375 ps=1.41 w=0.65 l=0.15
**devattr s=6760,364 d=3510,184
X1 VPWR A1 a_493_297# VPB sky130_fd_pr__pfet_01v8_hvt ad=0.335 pd=2.003333 as=0.105 ps=1.21 w=1 l=0.15
**devattr s=4200,242 d=10400,504
X2 a_493_297# A2 a_78_199# VPB sky130_fd_pr__pfet_01v8_hvt ad=0.105 pd=1.21 as=0.235 ps=1.47 w=1 l=0.15
**devattr s=9400,294 d=4200,242
X3 VPWR a_78_199# X VPB sky130_fd_pr__pfet_01v8_hvt ad=0.335 pd=2.003333 as=0.28 ps=2.56 w=1 l=0.15
**devattr s=11200,512 d=14900,349
X4 VGND A2 a_215_47# VNB sky130_fd_pr__nfet_01v8 ad=0.114833 pd=1.22 as=0.141375 ps=1.41 w=0.65 l=0.15
**devattr s=4550,200 d=3510,184
X5 a_78_199# B2 a_292_297# VPB sky130_fd_pr__pfet_01v8_hvt ad=0.235 pd=1.47 as=0.1175 ps=1.235 w=1 l=0.15
**devattr s=4700,247 d=9400,294
X6 a_215_47# A1 VGND VNB sky130_fd_pr__nfet_01v8 ad=0.141375 pd=1.41 as=0.114833 ps=1.22 w=0.65 l=0.15
**devattr s=3510,184 d=6760,364
X7 a_215_47# B2 a_78_199# VNB sky130_fd_pr__nfet_01v8 ad=0.141375 pd=1.41 as=0.08775 ps=0.92 w=0.65 l=0.15
**devattr s=3510,184 d=4550,200
X8 a_292_297# B1 VPWR VPB sky130_fd_pr__pfet_01v8_hvt ad=0.1175 pd=1.235 as=0.335 ps=2.003333 w=1 l=0.15
**devattr s=14900,349 d=4700,247
X9 VGND a_78_199# X VNB sky130_fd_pr__nfet_01v8 ad=0.114833 pd=1.22 as=0.169 ps=1.82 w=0.65 l=0.15
**devattr s=6760,364 d=6760,364
C0 B2 VGND 0.010267f
C1 B2 a_78_199# 0.081601f
C2 A1 VPB 0.031899f
C3 a_78_199# VPB 0.05169f
C4 B2 a_215_47# 0.020719f
C5 B1 VGND 0.011856f
C6 a_78_199# B1 0.147802f
C7 A1 VPWR 0.05704f
C8 VGND VPWR 0.066763f
C9 a_78_199# VPWR 0.211049f
C10 a_493_297# A2 0.010465f
C11 B2 VPB 0.028066f
C12 a_78_199# a_292_297# 0.012951f
C13 B2 B1 0.081466f
C14 B1 VPB 0.038762f
C15 A1 A2 0.087859f
C16 A2 VGND 0.015286f
C17 B2 VPWR 0.010367f
C18 a_78_199# A2 0.070688f
C19 VPWR VPB 0.074428f
C20 X VGND 0.047175f
C21 a_78_199# X 0.104588f
C22 A2 a_215_47# 0.043898f
C23 B1 VPWR 0.022722f
C24 B2 A2 0.06759f
C25 A2 VPB 0.034104f
C26 X VPB 0.010691f
C27 A1 VGND 0.014626f
C28 A2 VPWR 0.120404f
C29 a_78_199# VGND 0.068403f
C30 A1 a_215_47# 0.049793f
C31 X VPWR 0.091108f
C32 VGND a_215_47# 0.257828f
C33 a_78_199# a_215_47# 0.090715f
C34 VGND VNB 0.402531f
C35 VPWR VNB 0.35911f
C36 X VNB 0.088397f
C37 A1 VNB 0.132282f
C38 A2 VNB 0.097054f
C39 B2 VNB 0.091305f
C40 B1 VNB 0.109674f
C41 VPB VNB 0.69336f
C42 a_215_47# VNB 0.035725f
C43 a_78_199# VNB 0.15408f
.ends

.subckt sky130_ef_sc_hd__decap_12 VGND VPWR VPB VNB
X0 VPWR VGND VPWR VPB sky130_fd_pr__pfet_01v8_hvt ad=0.2262 pd=2.26 as=0.2262 ps=2.26 w=0.87 l=4.73
**devattr d=9048,452
X1 VGND VPWR VGND VNB sky130_fd_pr__nfet_01v8 ad=0.143 pd=1.62 as=0.143 ps=1.62 w=0.55 l=4.73
**devattr d=5720,324
C0 VPWR VGND 1.56539f
C1 VPB VGND 0.349732f
C2 VPWR VPB 0.136888f
C3 VPWR VNB 1.67352f
C4 VGND VNB 1.46552f
C5 VPB VNB 1.13634f
.ends

.subckt sky130_fd_sc_hd__dfxtp_1 CLK D VGND VNB VPB VPWR Q a_891_413# a_466_413# a_1059_315#
+ a_193_47# a_634_159# a_381_47# a_27_47#
X0 Q a_1059_315# VGND VNB sky130_fd_pr__nfet_01v8 ad=0.169 pd=1.82 as=0.12054 ps=1.304827 w=0.65 l=0.15
**devattr s=3510,184 d=6760,364
X1 a_891_413# a_193_47# a_634_159# VNB sky130_fd_pr__nfet_01v8 ad=0.0684 pd=0.74 as=0.071208 ps=0.7164 w=0.36 l=0.15
**devattr s=3956,199 d=2736,148
X2 a_561_413# a_27_47# a_466_413# VPB sky130_fd_pr__pfet_01v8_hvt ad=0.07665 pd=0.785 as=0.06825 ps=0.745 w=0.42 l=0.15
**devattr s=2730,149 d=3066,157
X3 VPWR CLK a_27_47# VPB sky130_fd_pr__pfet_01v8_hvt ad=0.12353 pd=1.162647 as=0.1664 ps=1.8 w=0.64 l=0.15
**devattr s=6656,360 d=3456,182
X4 Q a_1059_315# VPWR VPB sky130_fd_pr__pfet_01v8_hvt ad=0.26 pd=2.52 as=0.193015 ps=1.816635 w=1 l=0.15
**devattr s=5400,254 d=10400,504
X5 a_381_47# D VPWR VPB sky130_fd_pr__pfet_01v8_hvt ad=0.05775 pd=0.695 as=0.081066 ps=0.762987 w=0.42 l=0.15
**devattr s=4368,272 d=2310,139
X6 VGND a_634_159# a_592_47# VNB sky130_fd_pr__nfet_01v8 ad=0.077887 pd=0.843119 as=0.074954 ps=0.823846 w=0.42 l=0.15
**devattr s=2784,153 d=4838,217
X7 VPWR a_891_413# a_1059_315# VPB sky130_fd_pr__pfet_01v8_hvt ad=0.193015 pd=1.816635 as=0.27 ps=2.54 w=1 l=0.15
**devattr s=10800,508 d=5400,254
X8 a_466_413# a_193_47# a_381_47# VPB sky130_fd_pr__pfet_01v8_hvt ad=0.06825 pd=0.745 as=0.05775 ps=0.695 w=0.42 l=0.15
**devattr s=2310,139 d=2730,149
X9 VPWR a_634_159# a_561_413# VPB sky130_fd_pr__pfet_01v8_hvt ad=0.081066 pd=0.762987 as=0.07665 ps=0.785 w=0.42 l=0.15
**devattr s=3066,157 d=7155,252
X10 a_634_159# a_466_413# VGND VNB sky130_fd_pr__nfet_01v8 ad=0.126592 pd=1.2736 as=0.118685 ps=1.284752 w=0.64 l=0.15
**devattr s=4838,217 d=3956,199
X11 a_634_159# a_466_413# VPWR VPB sky130_fd_pr__pfet_01v8_hvt ad=0.140385 pd=1.378205 as=0.144761 ps=1.362476 w=0.75 l=0.15
**devattr s=7155,252 d=4380,215
X12 a_975_413# a_193_47# a_891_413# VPB sky130_fd_pr__pfet_01v8_hvt ad=0.0882 pd=0.84 as=0.0567 ps=0.69 w=0.42 l=0.15
**devattr s=2268,138 d=3528,168
X13 VGND a_1059_315# a_1017_47# VNB sky130_fd_pr__nfet_01v8 ad=0.077887 pd=0.843119 as=0.071077 ps=0.802308 w=0.42 l=0.15
**devattr s=2640,149 d=4368,272
X14 a_193_47# a_27_47# VGND VNB sky130_fd_pr__nfet_01v8 ad=0.1092 pd=1.36 as=0.077887 ps=0.843119 w=0.42 l=0.15
**devattr s=2268,138 d=4368,272
X15 a_891_413# a_27_47# a_634_159# VPB sky130_fd_pr__pfet_01v8_hvt ad=0.0567 pd=0.69 as=0.078615 ps=0.771795 w=0.42 l=0.15
**devattr s=4380,215 d=2268,138
X16 a_592_47# a_193_47# a_466_413# VNB sky130_fd_pr__nfet_01v8 ad=0.064246 pd=0.706154 as=0.0621 ps=0.705 w=0.36 l=0.15
**devattr s=2484,141 d=2784,153
X17 a_1017_47# a_27_47# a_891_413# VNB sky130_fd_pr__nfet_01v8 ad=0.060923 pd=0.687692 as=0.0684 ps=0.74 w=0.36 l=0.15
**devattr s=2736,148 d=2640,149
X18 VPWR a_1059_315# a_975_413# VPB sky130_fd_pr__pfet_01v8_hvt ad=0.081066 pd=0.762987 as=0.0882 ps=0.84 w=0.42 l=0.15
**devattr s=3528,168 d=4452,274
X19 a_466_413# a_27_47# a_381_47# VNB sky130_fd_pr__nfet_01v8 ad=0.0621 pd=0.705 as=0.075046 ps=0.766154 w=0.36 l=0.15
**devattr s=3252,166 d=2484,141
X20 a_193_47# a_27_47# VPWR VPB sky130_fd_pr__pfet_01v8_hvt ad=0.1664 pd=1.8 as=0.12353 ps=1.162647 w=0.64 l=0.15
**devattr s=3456,182 d=6656,360
X21 VGND a_891_413# a_1059_315# VNB sky130_fd_pr__nfet_01v8 ad=0.12054 pd=1.304827 as=0.169 ps=1.82 w=0.65 l=0.15
**devattr s=6760,364 d=3510,184
X22 a_381_47# D VGND VNB sky130_fd_pr__nfet_01v8 ad=0.087554 pd=0.893846 as=0.077887 ps=0.843119 w=0.42 l=0.15
**devattr s=4368,272 d=3252,166
X23 VGND CLK a_27_47# VNB sky130_fd_pr__nfet_01v8 ad=0.077887 pd=0.843119 as=0.1092 ps=1.36 w=0.42 l=0.15
**devattr s=4368,272 d=2268,138
C0 a_193_47# a_381_47# 0.101638f
C1 D VGND 0.038993f
C2 VPWR CLK 0.019411f
C3 VPB D 0.096334f
C4 a_891_413# VGND 0.131537f
C5 VPB a_891_413# 0.069773f
C6 a_466_413# a_27_47# 0.273138f
C7 a_27_47# a_381_47# 0.062224f
C8 VPWR a_193_47# 0.117215f
C9 Q a_1059_315# 0.081249f
C10 D a_381_47# 0.112186f
C11 a_27_47# CLK 0.213838f
C12 VPWR a_27_47# 0.379856f
C13 a_634_159# VGND 0.124877f
C14 VPB a_634_159# 0.07647f
C15 a_193_47# a_27_47# 0.974525f
C16 a_1059_315# VGND 0.155119f
C17 VPB a_1059_315# 0.154738f
C18 VPWR D 0.025067f
C19 Q VGND 0.076612f
C20 VPWR a_891_413# 0.115323f
C21 Q VPB 0.013828f
C22 a_466_413# a_634_159# 0.239923f
C23 a_193_47# D 0.175777f
C24 a_193_47# a_891_413# 0.196846f
C25 D a_27_47# 0.065857f
C26 VPB VGND 0.012227f
C27 a_27_47# a_891_413# 0.032244f
C28 VPWR a_634_159# 0.102126f
C29 a_193_47# a_634_159# 0.127288f
C30 VPWR a_1059_315# 0.232446f
C31 a_466_413# VGND 0.088802f
C32 a_466_413# VPB 0.074456f
C33 VPWR Q 0.110929f
C34 a_381_47# VGND 0.052221f
C35 VPB a_381_47# 0.014142f
C36 a_193_47# a_1059_315# 0.034054f
C37 a_634_159# a_27_47# 0.141453f
C38 VGND CLK 0.019463f
C39 VPB CLK 0.070057f
C40 a_466_413# a_381_47# 0.037333f
C41 a_1059_315# a_27_47# 0.048748f
C42 VPWR VGND 0.063886f
C43 VPWR VPB 0.168181f
C44 a_634_159# a_891_413# 0.036838f
C45 a_193_47# VGND 0.200101f
C46 a_193_47# VPB 0.176133f
C47 a_1059_315# a_891_413# 0.310858f
C48 VPWR a_466_413# 0.170985f
C49 VPWR a_381_47# 0.061283f
C50 a_27_47# VGND 0.136686f
C51 VPB a_27_47# 0.247821f
C52 a_466_413# a_193_47# 0.083013f
C53 Q VNB 0.088256f
C54 VGND VNB 0.84362f
C55 VPWR VNB 0.681368f
C56 D VNB 0.142509f
C57 CLK VNB 0.195983f
C58 VPB VNB 1.49072f
C59 a_381_47# VNB 0.015369f
C60 a_891_413# VNB 0.161052f
C61 a_1059_315# VNB 0.248849f
C62 a_466_413# VNB 0.133203f
C63 a_634_159# VNB 0.142309f
C64 a_193_47# VNB 0.284262f
C65 a_27_47# VNB 0.449511f
.ends

.subckt sky130_fd_sc_hd__inv_2 A VGND VNB VPB VPWR Y
X0 Y A VPWR VPB sky130_fd_pr__pfet_01v8_hvt ad=0.135 pd=1.27 as=0.26 ps=2.52 w=1 l=0.15
**devattr s=10400,504 d=5400,254
X1 VGND A Y VNB sky130_fd_pr__nfet_01v8 ad=0.169 pd=1.82 as=0.08775 ps=0.92 w=0.65 l=0.15
**devattr s=3510,184 d=6760,364
X2 Y A VGND VNB sky130_fd_pr__nfet_01v8 ad=0.08775 pd=0.92 as=0.169 ps=1.82 w=0.65 l=0.15
**devattr s=6760,364 d=3510,184
X3 VPWR A Y VPB sky130_fd_pr__pfet_01v8_hvt ad=0.26 pd=2.52 as=0.135 ps=1.27 w=1 l=0.15
**devattr s=5400,254 d=10400,504
C0 VPWR VGND 0.042274f
C1 Y A 0.089386f
C2 VPB VPWR 0.052063f
C3 VPWR A 0.06305f
C4 Y VPWR 0.209105f
C5 VGND A 0.063754f
C6 VPB A 0.074183f
C7 Y VGND 0.154601f
C8 VGND VNB 0.266187f
C9 Y VNB 0.03316f
C10 VPWR VNB 0.246044f
C11 A VNB 0.262807f
C12 VPB VNB 0.338976f
.ends

.subckt sky130_fd_sc_hd__o32a_1 A1 A2 A3 B1 B2 VGND VNB VPB VPWR X a_227_47# a_77_199#
X0 a_77_199# B2 a_227_47# VNB sky130_fd_pr__nfet_01v8 ad=0.13325 pd=1.06 as=0.1313 ps=1.184 w=0.65 l=0.15
**devattr s=5070,208 d=5330,212
X1 a_323_297# A2 a_227_297# VPB sky130_fd_pr__pfet_01v8_hvt ad=0.195 pd=1.39 as=0.165 ps=1.33 w=1 l=0.15
**devattr s=6600,266 d=7800,278
X2 a_227_297# A1 VPWR VPB sky130_fd_pr__pfet_01v8_hvt ad=0.165 pd=1.33 as=0.186667 ps=1.706667 w=1 l=0.15
**devattr s=5400,254 d=6600,266
X3 a_227_47# B1 a_77_199# VNB sky130_fd_pr__nfet_01v8 ad=0.1313 pd=1.184 as=0.13325 ps=1.06 w=0.65 l=0.15
**devattr s=5330,212 d=7540,376
X4 VGND a_77_199# X VNB sky130_fd_pr__nfet_01v8 ad=0.10725 pd=0.98 as=0.169 ps=1.82 w=0.65 l=0.15
**devattr s=6760,364 d=3510,184
X5 VPWR B1 a_539_297# VPB sky130_fd_pr__pfet_01v8_hvt ad=0.186667 pd=1.706667 as=0.205 ps=1.41 w=1 l=0.15
**devattr s=8200,282 d=11600,516
X6 a_227_47# A3 VGND VNB sky130_fd_pr__nfet_01v8 ad=0.1313 pd=1.184 as=0.10725 ps=0.98 w=0.65 l=0.15
**devattr s=5070,208 d=5070,208
X7 VPWR a_77_199# X VPB sky130_fd_pr__pfet_01v8_hvt ad=0.186667 pd=1.706667 as=0.335 ps=2.67 w=1 l=0.15
**devattr s=13400,534 d=5400,254
X8 a_77_199# A3 a_323_297# VPB sky130_fd_pr__pfet_01v8_hvt ad=0.195 pd=1.39 as=0.195 ps=1.39 w=1 l=0.15
**devattr s=7800,278 d=7800,278
X9 VGND A2 a_227_47# VNB sky130_fd_pr__nfet_01v8 ad=0.10725 pd=0.98 as=0.1313 ps=1.184 w=0.65 l=0.15
**devattr s=4290,196 d=5070,208
X10 a_227_47# A1 VGND VNB sky130_fd_pr__nfet_01v8 ad=0.1313 pd=1.184 as=0.10725 ps=0.98 w=0.65 l=0.15
**devattr s=3510,184 d=4290,196
X11 a_539_297# B2 a_77_199# VPB sky130_fd_pr__pfet_01v8_hvt ad=0.205 pd=1.41 as=0.195 ps=1.39 w=1 l=0.15
**devattr s=7800,278 d=8200,282
C0 A2 A1 0.075092f
C1 B2 VPWR 0.012246f
C2 X VPWR 0.102456f
C3 a_227_47# VGND 0.326249f
C4 A1 VPWR 0.018718f
C5 VPB A3 0.033035f
C6 A2 a_323_297# 0.011623f
C7 a_227_297# a_77_199# 0.018661f
C8 A2 VGND 0.016397f
C9 a_227_47# A2 0.041255f
C10 B2 B1 0.04397f
C11 VGND VPWR 0.072113f
C12 B2 a_77_199# 0.116444f
C13 a_77_199# X 0.092774f
C14 A2 VPWR 0.013495f
C15 A1 a_77_199# 0.123952f
C16 VGND B1 0.010652f
C17 a_227_47# B1 0.03409f
C18 a_77_199# a_323_297# 0.014272f
C19 B2 A3 0.102249f
C20 VGND a_77_199# 0.038735f
C21 a_227_47# a_77_199# 0.085098f
C22 A2 a_77_199# 0.113015f
C23 B1 VPWR 0.046731f
C24 B2 VPB 0.033813f
C25 VPB X 0.015707f
C26 a_77_199# VPWR 0.360105f
C27 VPB A1 0.029013f
C28 VGND A3 0.013109f
C29 a_227_47# A3 0.037584f
C30 A2 A3 0.106179f
C31 a_539_297# a_77_199# 0.022925f
C32 a_77_199# B1 0.046787f
C33 A2 VPB 0.033537f
C34 VPB VPWR 0.083235f
C35 A3 a_77_199# 0.030617f
C36 B2 VGND 0.010524f
C37 VPB B1 0.041119f
C38 a_227_47# B2 0.027482f
C39 VGND X 0.103165f
C40 VPB a_77_199# 0.047656f
C41 VGND A1 0.019687f
C42 a_227_47# A1 0.015082f
C43 VGND VNB 0.437857f
C44 VPWR VNB 0.404492f
C45 X VNB 0.100953f
C46 B1 VNB 0.150231f
C47 B2 VNB 0.097709f
C48 A3 VNB 0.096505f
C49 A2 VNB 0.096218f
C50 A1 VNB 0.094556f
C51 VPB VNB 0.781956f
C52 a_227_47# VNB 0.030865f
C53 a_77_199# VNB 0.146762f
.ends

.subckt sky130_fd_sc_hd__decap_3 VGND VNB VPB VPWR
X0 VPWR VGND VPWR VPB sky130_fd_pr__pfet_01v8_hvt ad=0.2262 pd=2.26 as=0.2262 ps=2.26 w=0.87 l=0.59
**devattr d=9048,452
X1 VGND VPWR VGND VNB sky130_fd_pr__nfet_01v8 ad=0.143 pd=1.62 as=0.143 ps=1.62 w=0.55 l=0.59
**devattr d=5720,324
C0 VGND VPWR 0.352999f
C1 VGND VPB 0.079664f
C2 VPB VPWR 0.062496f
C3 VPWR VNB 0.469966f
C4 VGND VNB 0.427318f
C5 VPB VNB 0.338976f
.ends

.subckt sky130_fd_sc_hd__decap_4 VGND VNB VPB VPWR
X0 VPWR VGND VPWR VPB sky130_fd_pr__pfet_01v8_hvt ad=0.2262 pd=2.26 as=0.2262 ps=2.26 w=0.87 l=1.05
**devattr d=9048,452
X1 VGND VPWR VGND VNB sky130_fd_pr__nfet_01v8 ad=0.143 pd=1.62 as=0.143 ps=1.62 w=0.55 l=1.05
**devattr d=5720,324
C0 VGND VPWR 0.545943f
C1 VGND VPB 0.116247f
C2 VPB VPWR 0.078686f
C3 VPWR VNB 0.61942f
C4 VGND VNB 0.553666f
C5 VPB VNB 0.427572f
.ends

.subckt sky130_fd_sc_hd__a21bo_1 A1 A2 B1_N VGND VNB VPB VPWR X a_215_297# a_27_413#
+ a_298_297#
X0 a_298_297# a_27_413# a_215_297# VPB sky130_fd_pr__pfet_01v8_hvt ad=0.178333 pd=1.69 as=0.265 ps=2.53 w=1 l=0.15
**devattr s=10600,506 d=5400,254
X1 a_215_297# a_27_413# VGND VNB sky130_fd_pr__nfet_01v8 ad=0.08775 pd=0.92 as=0.216269 ps=1.395992 w=0.65 l=0.15
**devattr s=5436,220 d=3510,184
X2 a_298_297# A2 VPWR VPB sky130_fd_pr__pfet_01v8_hvt ad=0.178333 pd=1.69 as=0.189825 ps=1.883041 w=1 l=0.15
**devattr s=5600,256 d=10600,506
X3 X a_215_297# VGND VNB sky130_fd_pr__nfet_01v8 ad=0.169 pd=1.82 as=0.216269 ps=1.395992 w=0.65 l=0.15
**devattr s=10335,289 d=6760,364
X4 VPWR B1_N a_27_413# VPB sky130_fd_pr__pfet_01v8_hvt ad=0.079726 pd=0.790877 as=0.1092 ps=1.36 w=0.42 l=0.15
**devattr s=4368,272 d=4368,272
X5 X a_215_297# VPWR VPB sky130_fd_pr__pfet_01v8_hvt ad=0.26 pd=2.52 as=0.189825 ps=1.883041 w=1 l=0.15
**devattr s=10400,504 d=10400,504
X6 a_382_47# A1 a_215_297# VNB sky130_fd_pr__nfet_01v8 ad=0.091 pd=0.93 as=0.08775 ps=0.92 w=0.65 l=0.15
**devattr s=3510,184 d=3640,186
X7 VGND B1_N a_27_413# VNB sky130_fd_pr__nfet_01v8 ad=0.139743 pd=0.902025 as=0.1113 ps=1.37 w=0.42 l=0.15
**devattr s=4452,274 d=5436,220
X8 VPWR A1 a_298_297# VPB sky130_fd_pr__pfet_01v8_hvt ad=0.189825 pd=1.883041 as=0.178333 ps=1.69 w=1 l=0.15
**devattr s=5400,254 d=5600,256
X9 VGND A2 a_382_47# VNB sky130_fd_pr__nfet_01v8 ad=0.216269 pd=1.395992 as=0.091 ps=0.93 w=0.65 l=0.15
**devattr s=3640,186 d=10335,289
C0 a_27_413# A1 0.057273f
C1 B1_N VGND 0.049226f
C2 a_298_297# VPWR 0.196264f
C3 A1 VPB 0.027656f
C4 a_27_413# VGND 0.098153f
C5 A1 VPWR 0.021516f
C6 a_27_413# B1_N 0.237073f
C7 VPB VGND 0.011706f
C8 B1_N VPB 0.103238f
C9 VPWR VGND 0.07888f
C10 B1_N VPWR 0.018972f
C11 a_27_413# VPB 0.098696f
C12 a_27_413# VPWR 0.107226f
C13 a_298_297# A2 0.035704f
C14 X VGND 0.057294f
C15 VPWR VPB 0.097622f
C16 a_298_297# a_215_297# 0.071778f
C17 A2 A1 0.111772f
C18 A1 a_215_297# 0.092984f
C19 A2 VGND 0.019667f
C20 a_215_297# VGND 0.271787f
C21 X VPB 0.011733f
C22 VPWR X 0.114913f
C23 a_27_413# a_215_297# 0.141213f
C24 A2 VPB 0.041742f
C25 a_215_297# VPB 0.05456f
C26 A2 VPWR 0.030697f
C27 a_215_297# VPWR 0.129868f
C28 a_298_297# A1 0.049414f
C29 a_215_297# a_382_47# 0.01048f
C30 a_215_297# X 0.080241f
C31 A1 VGND 0.01436f
C32 A2 a_215_297# 0.094911f
C33 VGND VNB 0.439582f
C34 X VNB 0.089001f
C35 VPWR VNB 0.36562f
C36 A2 VNB 0.107548f
C37 A1 VNB 0.089279f
C38 B1_N VNB 0.290462f
C39 VPB VNB 0.781956f
C40 a_215_297# VNB 0.152836f
C41 a_27_413# VNB 0.171579f
.ends

.subckt sky130_fd_sc_hd__clkbuf_4 A VGND VNB VPB VPWR X a_27_47#
X0 VPWR A a_27_47# VPB sky130_fd_pr__pfet_01v8_hvt ad=0.182 pd=1.564 as=0.265 ps=2.53 w=1 l=0.15
**devattr s=10600,506 d=6600,266
X1 VGND a_27_47# X VNB sky130_fd_pr__nfet_01v8 ad=0.07602 pd=0.866 as=0.0588 ps=0.7 w=0.42 l=0.15
**devattr s=2352,140 d=4872,284
X2 VGND a_27_47# X VNB sky130_fd_pr__nfet_01v8 ad=0.07602 pd=0.866 as=0.0588 ps=0.7 w=0.42 l=0.15
**devattr s=2352,140 d=2352,140
X3 X a_27_47# VPWR VPB sky130_fd_pr__pfet_01v8_hvt ad=0.14 pd=1.28 as=0.182 ps=1.564 w=1 l=0.15
**devattr s=5600,256 d=5600,256
X4 X a_27_47# VGND VNB sky130_fd_pr__nfet_01v8 ad=0.0588 pd=0.7 as=0.07602 ps=0.866 w=0.42 l=0.15
**devattr s=2352,140 d=2352,140
X5 VGND A a_27_47# VNB sky130_fd_pr__nfet_01v8 ad=0.07602 pd=0.866 as=0.1113 ps=1.37 w=0.42 l=0.15
**devattr s=4452,274 d=2814,151
X6 VPWR a_27_47# X VPB sky130_fd_pr__pfet_01v8_hvt ad=0.182 pd=1.564 as=0.14 ps=1.28 w=1 l=0.15
**devattr s=5600,256 d=12000,520
X7 X a_27_47# VGND VNB sky130_fd_pr__nfet_01v8 ad=0.0588 pd=0.7 as=0.07602 ps=0.866 w=0.42 l=0.15
**devattr s=2814,151 d=2352,140
X8 X a_27_47# VPWR VPB sky130_fd_pr__pfet_01v8_hvt ad=0.14 pd=1.28 as=0.182 ps=1.564 w=1 l=0.15
**devattr s=6600,266 d=5600,256
X9 VPWR a_27_47# X VPB sky130_fd_pr__pfet_01v8_hvt ad=0.182 pd=1.564 as=0.14 ps=1.28 w=1 l=0.15
**devattr s=5600,256 d=5600,256
C0 VPWR A 0.021953f
C1 VGND a_27_47# 0.148483f
C2 VPB X 0.012159f
C3 a_27_47# X 0.327705f
C4 VGND X 0.21559f
C5 VPB A 0.032139f
C6 VPWR VPB 0.063172f
C7 a_27_47# A 0.195005f
C8 VPWR a_27_47# 0.219243f
C9 VGND A 0.043094f
C10 VPWR VGND 0.057043f
C11 X A 0.013951f
C12 VPWR X 0.316967f
C13 a_27_47# VPB 0.138763f
C14 VGND VNB 0.357713f
C15 X VNB 0.067008f
C16 VPWR VNB 0.307647f
C17 A VNB 0.147639f
C18 VPB VNB 0.604764f
C19 a_27_47# VNB 0.542977f
.ends

.subckt sky130_fd_sc_hd__decap_6 VGND VNB VPB VPWR
X0 VPWR VGND VPWR VPB sky130_fd_pr__pfet_01v8_hvt ad=0.2262 pd=2.26 as=0.2262 ps=2.26 w=0.87 l=1.97
**devattr d=9048,452
X1 VGND VPWR VGND VNB sky130_fd_pr__nfet_01v8 ad=0.143 pd=1.62 as=0.143 ps=1.62 w=0.55 l=1.97
**devattr d=5720,324
C0 VPB VPWR 0.085759f
C1 VGND VPWR 0.903312f
C2 VPB VGND 0.161065f
C3 VPWR VNB 0.867393f
C4 VGND VNB 0.761362f
C5 VPB VNB 0.604764f
.ends

.subckt sky130_fd_sc_hd__decap_8 VGND VNB VPB VPWR
X0 VPWR VGND VPWR VPB sky130_fd_pr__pfet_01v8_hvt ad=0.2262 pd=2.26 as=0.2262 ps=2.26 w=0.87 l=2.89
**devattr d=9048,452
X1 VGND VPWR VGND VNB sky130_fd_pr__nfet_01v8 ad=0.143 pd=1.62 as=0.143 ps=1.62 w=0.55 l=2.89
**devattr d=5720,324
C0 VPB VPWR 0.104823f
C1 VGND VPWR 1.27274f
C2 VPB VGND 0.219503f
C3 VPWR VNB 1.14152f
C4 VGND VNB 0.991595f
C5 VPB VNB 0.781956f
.ends

.subckt sky130_fd_sc_hd__a2111o_1 A1 A2 B1 C1 D1 VGND VNB VPB VPWR X a_516_297# a_85_193#
X0 VGND A2 a_660_47# VNB sky130_fd_pr__nfet_01v8 ad=0.19435 pd=1.378 as=0.082875 ps=0.905 w=0.65 l=0.15
**devattr s=3315,181 d=7540,376
X1 VGND C1 a_85_193# VNB sky130_fd_pr__nfet_01v8 ad=0.19435 pd=1.378 as=0.143 ps=1.09 w=0.65 l=0.15
**devattr s=4030,192 d=4680,202
X2 a_414_297# C1 a_334_297# VPB sky130_fd_pr__pfet_01v8_hvt ad=0.18 pd=1.36 as=0.125 ps=1.25 w=1 l=0.15
**devattr s=5000,250 d=7200,272
X3 VGND a_85_193# X VNB sky130_fd_pr__nfet_01v8 ad=0.19435 pd=1.378 as=0.2145 ps=1.96 w=0.65 l=0.15
**devattr s=8580,392 d=10985,299
X4 a_334_297# D1 a_85_193# VPB sky130_fd_pr__pfet_01v8_hvt ad=0.125 pd=1.25 as=0.385 ps=2.77 w=1 l=0.15
**devattr s=15400,554 d=5000,250
X5 a_516_297# B1 a_414_297# VPB sky130_fd_pr__pfet_01v8_hvt ad=0.283333 pd=1.9 as=0.18 ps=1.36 w=1 l=0.15
**devattr s=7200,272 d=11200,312
X6 a_516_297# A2 VPWR VPB sky130_fd_pr__pfet_01v8_hvt ad=0.283333 pd=1.9 as=0.178333 ps=1.69 w=1 l=0.15
**devattr s=5400,254 d=11600,516
X7 a_660_47# A1 a_85_193# VNB sky130_fd_pr__nfet_01v8 ad=0.082875 pd=0.905 as=0.143 ps=1.09 w=0.65 l=0.15
**devattr s=7410,244 d=3315,181
X8 a_85_193# D1 VGND VNB sky130_fd_pr__nfet_01v8 ad=0.143 pd=1.09 as=0.19435 ps=1.378 w=0.65 l=0.15
**devattr s=10985,299 d=4030,192
X9 VPWR A1 a_516_297# VPB sky130_fd_pr__pfet_01v8_hvt ad=0.178333 pd=1.69 as=0.283333 ps=1.9 w=1 l=0.15
**devattr s=11200,312 d=5400,254
X10 a_85_193# B1 VGND VNB sky130_fd_pr__nfet_01v8 ad=0.143 pd=1.09 as=0.19435 ps=1.378 w=0.65 l=0.15
**devattr s=4680,202 d=7410,244
X11 VPWR a_85_193# X VPB sky130_fd_pr__pfet_01v8_hvt ad=0.178333 pd=1.69 as=0.29 ps=2.58 w=1 l=0.15
**devattr s=11600,516 d=10600,506
C0 C1 D1 0.169347f
C1 A1 VPWR 0.02157f
C2 VPB a_85_193# 0.066264f
C3 X VPWR 0.094258f
C4 D1 VPWR 0.036977f
C5 VPB B1 0.036936f
C6 C1 VGND 0.016422f
C7 VPWR a_516_297# 0.217239f
C8 A1 A2 0.083244f
C9 VGND VPWR 0.087252f
C10 C1 VPWR 0.04987f
C11 A2 a_516_297# 0.056021f
C12 VGND A2 0.046422f
C13 A1 a_85_193# 0.056088f
C14 a_85_193# X 0.106854f
C15 A1 B1 0.068882f
C16 a_85_193# D1 0.184988f
C17 C1 a_414_297# 0.01365f
C18 A2 VPWR 0.021508f
C19 A1 VPB 0.033363f
C20 a_85_193# VGND 0.292376f
C21 VPB X 0.010929f
C22 B1 a_516_297# 0.087957f
C23 VPB D1 0.038109f
C24 VGND B1 0.014558f
C25 C1 a_85_193# 0.037306f
C26 VPB a_516_297# 0.010413f
C27 C1 B1 0.164685f
C28 VPB VGND 0.0102f
C29 a_85_193# VPWR 0.14392f
C30 B1 VPWR 0.043795f
C31 C1 VPB 0.030173f
C32 VPB VPWR 0.098773f
C33 A1 a_516_297# 0.05885f
C34 VPB A2 0.033731f
C35 A1 VGND 0.116703f
C36 VGND X 0.068497f
C37 VGND D1 0.015289f
C38 a_85_193# B1 0.039821f
C39 VGND VNB 0.505453f
C40 VPWR VNB 0.405283f
C41 X VNB 0.088362f
C42 A2 VNB 0.136216f
C43 A1 VNB 0.114026f
C44 B1 VNB 0.101766f
C45 C1 VNB 0.09306f
C46 D1 VNB 0.10506f
C47 VPB VNB 0.870552f
C48 a_516_297# VNB 0.035006f
C49 a_85_193# VNB 0.166604f
.ends

.subckt sky130_fd_sc_hd__or3b_1 A B C_N VGND VNB VPB VPWR X a_215_53# a_109_93#
X0 a_109_93# C_N VGND VNB sky130_fd_pr__nfet_01v8 ad=0.1092 pd=1.36 as=0.076267 ps=0.849013 w=0.42 l=0.15
**devattr s=4368,272 d=4368,272
X1 a_215_53# B VGND VNB sky130_fd_pr__nfet_01v8 ad=0.0742 pd=0.913333 as=0.076267 ps=0.849013 w=0.42 l=0.15
**devattr s=2268,138 d=2268,138
X2 VGND a_109_93# a_215_53# VNB sky130_fd_pr__nfet_01v8 ad=0.076267 pd=0.849013 as=0.0742 ps=0.913333 w=0.42 l=0.15
**devattr s=4368,272 d=2268,138
X3 VGND A a_215_53# VNB sky130_fd_pr__nfet_01v8 ad=0.076267 pd=0.849013 as=0.0742 ps=0.913333 w=0.42 l=0.15
**devattr s=2268,138 d=4010,197
X4 VPWR A a_369_297# VPB sky130_fd_pr__pfet_01v8_hvt ad=0.092605 pd=0.922174 as=0.06825 ps=0.745 w=0.42 l=0.15
**devattr s=2730,149 d=5930,268
X5 a_369_297# B a_297_297# VPB sky130_fd_pr__pfet_01v8_hvt ad=0.06825 pd=0.745 as=0.0441 ps=0.63 w=0.42 l=0.15
**devattr s=1764,126 d=2730,149
X6 X a_215_53# VPWR VPB sky130_fd_pr__pfet_01v8_hvt ad=0.275 pd=2.55 as=0.220489 ps=2.195652 w=1 l=0.15
**devattr s=5930,268 d=11000,510
X7 a_297_297# a_109_93# a_215_53# VPB sky130_fd_pr__pfet_01v8_hvt ad=0.0441 pd=0.63 as=0.1092 ps=1.36 w=0.42 l=0.15
**devattr s=4368,272 d=1764,126
X8 a_109_93# C_N VPWR VPB sky130_fd_pr__pfet_01v8_hvt ad=0.1092 pd=1.36 as=0.092605 ps=0.922174 w=0.42 l=0.15
**devattr s=4368,272 d=4368,272
X9 X a_215_53# VGND VNB sky130_fd_pr__nfet_01v8 ad=0.17875 pd=1.85 as=0.118032 ps=1.313948 w=0.65 l=0.15
**devattr s=4010,197 d=7150,370
C0 a_215_53# B 0.120778f
C1 VPWR VGND 0.06567f
C2 B VPB 0.110475f
C3 a_215_53# VGND 0.232049f
C4 B A 0.079275f
C5 a_215_53# VPWR 0.085727f
C6 VPB VGND 0.010346f
C7 VPWR VPB 0.109107f
C8 A VGND 0.018847f
C9 a_215_53# VPB 0.049294f
C10 a_215_53# A 0.245132f
C11 X VGND 0.035902f
C12 A VPB 0.03757f
C13 VPWR X 0.088522f
C14 B a_109_93# 0.099724f
C15 a_215_53# X 0.099129f
C16 C_N VGND 0.042739f
C17 C_N VPWR 0.037773f
C18 a_109_93# VGND 0.084353f
C19 X VPB 0.010957f
C20 VPWR a_109_93# 0.0369f
C21 a_215_53# a_109_93# 0.13675f
C22 C_N VPB 0.046442f
C23 a_109_93# VPB 0.053437f
C24 a_109_93# A 0.036898f
C25 B VGND 0.015735f
C26 VPWR B 0.234984f
C27 C_N a_109_93# 0.05842f
C28 VGND VNB 0.439259f
C29 X VNB 0.08839f
C30 A VNB 0.112741f
C31 C_N VNB 0.150085f
C32 B VNB 0.103426f
C33 VPWR VNB 0.362977f
C34 VPB VNB 0.69336f
C35 a_109_93# VNB 0.160708f
C36 a_215_53# VNB 0.142592f
.ends

.subckt sky130_fd_sc_hd__buf_2 A VGND VNB VPB VPWR X a_27_47#
X0 VPWR a_27_47# X VPB sky130_fd_pr__pfet_01v8_hvt ad=0.213258 pd=1.962121 as=0.135 ps=1.27 w=1 l=0.15
**devattr s=5400,254 d=10600,506
X1 X a_27_47# VPWR VPB sky130_fd_pr__pfet_01v8_hvt ad=0.135 pd=1.27 as=0.213258 ps=1.962121 w=1 l=0.15
**devattr s=5960,265 d=5400,254
X2 VPWR A a_27_47# VPB sky130_fd_pr__pfet_01v8_hvt ad=0.136485 pd=1.255758 as=0.1664 ps=1.8 w=0.64 l=0.15
**devattr s=6656,360 d=5960,265
X3 X a_27_47# VGND VNB sky130_fd_pr__nfet_01v8 ad=0.08775 pd=0.92 as=0.138408 ps=1.428488 w=0.65 l=0.15
**devattr s=3880,195 d=3510,184
X4 VGND a_27_47# X VNB sky130_fd_pr__nfet_01v8 ad=0.138408 pd=1.428488 as=0.08775 ps=0.92 w=0.65 l=0.15
**devattr s=3510,184 d=6890,366
X5 VGND A a_27_47# VNB sky130_fd_pr__nfet_01v8 ad=0.089433 pd=0.923023 as=0.1092 ps=1.36 w=0.42 l=0.15
**devattr s=4368,272 d=3880,195
C0 VPWR A 0.022108f
C1 VGND a_27_47# 0.12719f
C2 a_27_47# X 0.148785f
C3 VGND X 0.111264f
C4 VPB A 0.069727f
C5 VPWR VPB 0.05279f
C6 a_27_47# A 0.157874f
C7 VPWR a_27_47# 0.153302f
C8 VGND A 0.019887f
C9 VPWR VGND 0.051753f
C10 VPWR X 0.168994f
C11 a_27_47# VPB 0.074969f
C12 VGND VNB 0.284185f
C13 X VNB 0.021498f
C14 VPWR VNB 0.249629f
C15 A VNB 0.187471f
C16 VPB VNB 0.427572f
C17 a_27_47# VNB 0.28447f
.ends

.subckt sky130_fd_sc_hd__xnor2_1 A B VGND VNB VPB VPWR Y a_47_47# a_285_47#
X0 a_377_297# A VPWR VPB sky130_fd_pr__pfet_01v8_hvt ad=0.105 pd=1.21 as=0.3475 ps=2.195 w=1 l=0.15
**devattr s=14600,346 d=4200,242
X1 a_47_47# B VPWR VPB sky130_fd_pr__pfet_01v8_hvt ad=0.135 pd=1.27 as=0.3475 ps=2.195 w=1 l=0.15
**devattr s=12000,520 d=5400,254
X2 a_129_47# B a_47_47# VNB sky130_fd_pr__nfet_01v8 ad=0.06825 pd=0.86 as=0.169 ps=1.82 w=0.65 l=0.15
**devattr s=6760,364 d=2730,172
X3 a_285_47# B VGND VNB sky130_fd_pr__nfet_01v8 ad=0.114833 pd=1.22 as=0.114833 ps=1.22 w=0.65 l=0.15
**devattr s=6760,364 d=3510,184
X4 Y a_47_47# a_285_47# VNB sky130_fd_pr__nfet_01v8 ad=0.195 pd=1.9 as=0.114833 ps=1.22 w=0.65 l=0.15
**devattr s=3510,184 d=7800,380
X5 VGND A a_129_47# VNB sky130_fd_pr__nfet_01v8 ad=0.114833 pd=1.22 as=0.06825 ps=0.86 w=0.65 l=0.15
**devattr s=2730,172 d=3510,184
X6 VPWR A a_47_47# VPB sky130_fd_pr__pfet_01v8_hvt ad=0.3475 pd=2.195 as=0.135 ps=1.27 w=1 l=0.15
**devattr s=5400,254 d=14600,346
X7 VPWR a_47_47# Y VPB sky130_fd_pr__pfet_01v8_hvt ad=0.3475 pd=2.195 as=0.165 ps=1.33 w=1 l=0.15
**devattr s=6600,266 d=14400,544
X8 Y B a_377_297# VPB sky130_fd_pr__pfet_01v8_hvt ad=0.165 pd=1.33 as=0.105 ps=1.21 w=1 l=0.15
**devattr s=4200,242 d=6600,266
X9 a_285_47# A VGND VNB sky130_fd_pr__nfet_01v8 ad=0.114833 pd=1.22 as=0.114833 ps=1.22 w=0.65 l=0.15
**devattr s=3510,184 d=6760,364
C0 VPWR A 0.034894f
C1 B a_47_47# 0.35554f
C2 a_47_47# VPB 0.044386f
C3 VGND a_47_47# 0.103529f
C4 B VPB 0.064326f
C5 VGND Y 0.038107f
C6 a_47_47# A 0.030704f
C7 VGND B 0.038916f
C8 a_47_47# a_285_47# 0.017546f
C9 Y a_285_47# 0.043869f
C10 B A 0.23582f
C11 VPWR a_47_47# 0.272937f
C12 B a_285_47# 0.066964f
C13 VPWR Y 0.107281f
C14 A VPB 0.082204f
C15 VPWR B 0.040822f
C16 VGND A 0.063473f
C17 VPWR VPB 0.071773f
C18 VGND a_285_47# 0.210545f
C19 A a_285_47# 0.035318f
C20 a_47_47# Y 0.142676f
C21 VGND VPWR 0.066517f
C22 VGND VNB 0.399812f
C23 Y VNB 0.078329f
C24 VPWR VNB 0.351939f
C25 A VNB 0.216579f
C26 B VNB 0.212328f
C27 VPB VNB 0.69336f
C28 a_285_47# VNB 0.017425f
C29 a_47_47# VNB 0.199276f
.ends

.subckt sky130_fd_sc_hd__dlygate4sd3_1 A VGND VNB VPB VPWR X a_49_47# a_285_47# a_391_47#
X0 VPWR A a_49_47# VPB sky130_fd_pr__pfet_01v8_hvt ad=0.073388 pd=0.748938 as=0.1092 ps=1.36 w=0.42 l=0.15
**devattr s=4368,272 d=2268,138
X1 VGND a_285_47# a_391_47# VNB sky130_fd_pr__nfet_01v8 ad=0.067596 pd=0.732251 as=0.1092 ps=1.36 w=0.42 l=0.5
**devattr s=4368,272 d=3880,195
X2 X a_391_47# VPWR VPB sky130_fd_pr__pfet_01v8_hvt ad=0.26 pd=2.52 as=0.174735 ps=1.783186 w=1 l=0.15
**devattr s=5630,265 d=10400,504
X3 VGND A a_49_47# VNB sky130_fd_pr__nfet_01v8 ad=0.067596 pd=0.732251 as=0.1092 ps=1.36 w=0.42 l=0.15
**devattr s=4368,272 d=2268,138
X4 VPWR a_285_47# a_391_47# VPB sky130_fd_pr__pfet_01v8_hvt ad=0.073388 pd=0.748938 as=0.1092 ps=1.36 w=0.42 l=0.5
**devattr s=4368,272 d=5630,265
X5 a_285_47# a_49_47# VGND VNB sky130_fd_pr__nfet_01v8 ad=0.1092 pd=1.36 as=0.067596 ps=0.732251 w=0.42 l=0.5
**devattr s=2268,138 d=4368,272
X6 a_285_47# a_49_47# VPWR VPB sky130_fd_pr__pfet_01v8_hvt ad=0.1092 pd=1.36 as=0.073388 ps=0.748938 w=0.42 l=0.5
**devattr s=2268,138 d=4368,272
X7 X a_391_47# VGND VNB sky130_fd_pr__nfet_01v8 ad=0.169 pd=1.82 as=0.104613 ps=1.133246 w=0.65 l=0.15
**devattr s=3880,195 d=6760,364
C0 a_49_47# VPB 0.125413f
C1 VPB A 0.082837f
C2 a_49_47# VPWR 0.144268f
C3 VPWR A 0.020643f
C4 a_49_47# A 0.279977f
C5 a_391_47# VGND 0.130239f
C6 a_391_47# a_285_47# 0.419086f
C7 VGND X 0.07961f
C8 a_285_47# VPB 0.156427f
C9 VGND VPWR 0.071507f
C10 VPWR a_285_47# 0.119832f
C11 a_49_47# VGND 0.143546f
C12 a_49_47# a_285_47# 0.22264f
C13 VGND A 0.021393f
C14 a_391_47# VPB 0.044127f
C15 a_391_47# X 0.128943f
C16 X VPB 0.015496f
C17 a_391_47# VPWR 0.134775f
C18 VPWR VPB 0.0787f
C19 VPWR X 0.080229f
C20 VGND a_285_47# 0.120945f
C21 VGND VNB 0.43965f
C22 X VNB 0.095447f
C23 VPWR VNB 0.367348f
C24 A VNB 0.178652f
C25 VPB VNB 0.781956f
C26 a_391_47# VNB 0.127705f
C27 a_285_47# VNB 0.29867f
C28 a_49_47# VNB 0.306903f
.ends

.subckt sky130_fd_sc_hd__a221o_1 A1 A2 B1 B2 C1 VGND VNB VPB VPWR X a_193_297# a_109_297#
+ a_27_47#
X0 a_465_47# A1 a_27_47# VNB sky130_fd_pr__nfet_01v8 ad=0.10725 pd=0.98 as=0.169 ps=1.82 w=0.65 l=0.15
**devattr s=6760,364 d=4290,196
X1 X a_27_47# VPWR VPB sky130_fd_pr__pfet_01v8_hvt ad=0.26 pd=2.52 as=0.191667 ps=1.716667 w=1 l=0.15
**devattr s=6300,263 d=10400,504
X2 a_109_297# B1 a_193_297# VPB sky130_fd_pr__pfet_01v8_hvt ad=0.176667 pd=1.686667 as=0.15 ps=1.3 w=1 l=0.15
**devattr s=5400,254 d=10400,504
X3 a_193_297# B2 a_109_297# VPB sky130_fd_pr__pfet_01v8_hvt ad=0.15 pd=1.3 as=0.176667 ps=1.686667 w=1 l=0.15
**devattr s=5400,254 d=5400,254
X4 X a_27_47# VGND VNB sky130_fd_pr__nfet_01v8 ad=0.169 pd=1.82 as=0.104813 ps=0.9725 w=0.65 l=0.15
**devattr s=4095,193 d=6760,364
X5 a_205_47# B2 VGND VNB sky130_fd_pr__nfet_01v8 ad=0.06825 pd=0.86 as=0.104813 ps=0.9725 w=0.65 l=0.15
**devattr s=4290,196 d=2730,172